/*--------------------------------*- C++ -*----------------------------------*\
| =========                 |                                                 |
| \\      /  F ield         | OpenFOAM: The Open Source CFD Toolbox           |
|  \\    /   O peration     | Version:  v1912                                 |
|   \\  /    A nd           | Website:  www.openfoam.com                      |
|    \\/     M anipulation  |                                                 |
\*---------------------------------------------------------------------------*/
FoamFile
{
    version     2.0;
    format      ascii;
    class       dictionary;
    object      fvSchemes;
}
// * * * * * * * * * * * * * * * * * * * * * * * * * * * * * * * * * * * * * //

ddtSchemes
{
    //default    Euler;
    default  CrankNicolson 0.5;
}

gradSchemes
{
    default         cellMDLimited Gauss linear 0.5;
    grad(U)         cellMDLimited Gauss linear 1;  
                                                                         
    //grad(yPsi)      cellLimited Gauss linear 1.0;
    grad(k)      cellLimited Gauss linear 1.0;
    grad(omega)      cellLimited Gauss linear 1.0;
}

divSchemes
{
    div(rhoPhi,U)  Gauss vanLeerV;
    //div(rhoPhi,U)   Gauss linearUpwindV grad(U);
    div(phi,alpha)  Gauss vanLeer;
    div(phirb,alpha) Gauss linear;
    div(((rho*nuEff)*dev2(T(grad(U))))) Gauss linear;

    div(phi,k)      Gauss linearUpwind default;
    div(phi,omega) Gauss linearUpwind default;
    //div(phi,k)      Gauss upwind;
    //div(phi,omega) Gauss upwind;
}

laplacianSchemes
{
    default         Gauss linear limited 0.5;
}

interpolationSchemes
{
    default         linear;
}

snGradSchemes
{
    default         limited 0.5;
}

oversetInterpolation
{
    method          inverseDistance;
}


oversetInterpolationSuppressed
{
    grad(p_rgh);
    surfaceIntegrate(phiHbyA);
}

fluxRequired
{
    default         no;
    p_rgh;
    pcorr;
    alpha.water;
}
wallDist
{
    method Poisson;
}


// ************************************************************************* //
