/*--------------------------------*- C++ -*----------------------------------*\
| =========                 |                                                 |
| \\      /  F ield         | OpenFOAM: The Open Source CFD Toolbox           |
|  \\    /   O peration     | Version:  v1912                                 |
|   \\  /    A nd           | Website:  www.openfoam.com                      |
|    \\/     M anipulation  |                                                 |
\*---------------------------------------------------------------------------*/
FoamFile
{
    version     2.0;
    format      ascii;
    class       dictionary;
    object      fvSolution;
}
// * * * * * * * * * * * * * * * * * * * * * * * * * * * * * * * * * * * * * //

solvers
{

    "cellDisplacement.*"
    {
        solver          PCG;
        preconditioner  DIC;

        tolerance       1e-07;
        relTol          0;
        maxIter         100;
    }

    "alpha.water.*"
    {
        nAlphaCorr      3;
        nAlphaSubCycles 2;
        cAlpha          1;
        icAlpha         0;

        MULESCorr       yes;
        nLimiterIter    5;
        alphaApplyPrevCorr  no;

        solver          smoothSolver;
        smoother        symGaussSeidel;
        tolerance       1e-8;
        relTol          0;
    }

    "pcorr.*"//重叠网格不支持GAMG求解器
    {
        solver          PCG;
        preconditioner  DIC;
        tolerance       1e-7;
        relTol          0;
    }

    p_rgh
    {
        solver          PBiCGStab;
        preconditioner  DILU;
        tolerance       1e-7;
        relTol          0.01;//松迭代
    }

    p_rghFinal//使用PISO和PIMPLE的时候需要定义最后一个压力修正步
    {
        $p_rgh;
        relTol          0;
    }
    
    yPsi//重叠网格相关
    {
            solver          PBiCGStab;
            preconditioner  DILU;
            tolerance       1e-7;
            relTol          0.0;
    }

    "(U|k|omega|epsilon).*"
    {
        solver          smoothSolver;
        smoother        symGaussSeidel;
        tolerance       1e-08;
        relTol          0;
    }
}

PIMPLE
{
    momentumPredictor   yes;
    nOuterCorrectors    5;
    nCorrectors         3;
    nNonOrthogonalCorrectors 1;

    ddtCorr                    yes;
    correctPhi                 no;
    checkMeshCourantNo 	yes;//检查网格库朗数
    moveMeshOuterCorrectors no;
    turbOnFinalIterOnly no;

    oversetAdjustPhi    no;
}

relaxationFactors
{
    fields
    {
           ".*" 0.9;
    }
    equations
    {
            ".*" 0.9;
    }
}

cache
{}

// ************************************************************************* //
