/*--------------------------------*- C++ -*----------------------------------*\
| =========                 |                                                 |
| \\      /  F ield         | OpenFOAM: The Open Source CFD Toolbox           |
|  \\    /   O peration     | Version:  v1912                                 |
|   \\  /    A nd           | Website:  www.openfoam.com                      |
|    \\/     M anipulation  |                                                 |
\*---------------------------------------------------------------------------*/
FoamFile
{
    version     2.0;
    format      ascii;
    class       IOMap<dictionary>;
    note        "persistent data for thirdParty mesh <-> OpenFOAM translation";
    location    "constant";
    object      cellTable;
}
// * * * * * * * * * * * * * * * * * * * * * * * * * * * * * * * * * * * * * //


1
(
1 
{
    Label           background;
    MaterialType    fluid;
    MaterialId      2;
    GroupId         1;
}

)