/*--------------------------------*- C++ -*----------------------------------*\
| =========                 |                                                 |
| \\      /  F ield         | OpenFOAM: The Open Source CFD Toolbox           |
|  \\    /   O peration     | Version:  v1912                                 |
|   \\  /    A nd           | Website:  www.openfoam.com                      |
|    \\/     M anipulation  |                                                 |
\*---------------------------------------------------------------------------*/
FoamFile
{
    version     2.0;
    format      ascii;
    class       volScalarField;
    object      p_rgh;
}
// * * * * * * * * * * * * * * * * * * * * * * * * * * * * * * * * * * * * * //

dimensions      [1 -1 -2 0 0 0 0];

internalField   uniform 0;

boundaryField
{
    #includeEtc "caseDicts/setConstraintTypes"//为基类型提供自动的边界条件，oversetPatch和sides
    
    inlet
    {
        type            fixedFluxPressure;
        value           $internalField;
    }
    
    outlet
    {
        type            fixedFluxPressure;
        value           $internalField;
    }
    
    stationaryWalls
    {
        type            fixedFluxPressure;
        value           $internalField;
    }
    
    bottom
    {
        type            fixedFluxPressure;
        value           $internalField;
    }
    atmosphere
    {
        type            totalPressure;
        p0              uniform 0;
        U               U;
        phi             phi;
        rho             rho;
        psi             none;
        gamma           1;
        value           uniform 0;
    }
    floatingObject
    {
        type            fixedFluxPressure;
        value           $internalField;
    }
}

// ************************************************************************* //
